COM40 - SD5 - na antresoli bez kotary.fds
Generated by PyroSim 2024.2.1209
10 lut 2026, 11:27:13

&HEAD CHID='COM40 - SD5 - na antresoli bez kotary', TITLE='COM40 - SD5 - bez kotary na antresoli'/
&TIME T_END=1200.0/
&DUMP DT_RESTART=300.0, DT_SL3D=0.25/

&MESH ID='Mesh17-01-01-01', IJK=62,138,36, XB=189.8,214.6,-135.2,-80.0,-0.2,14.2/
&MESH ID='Mesh17-01-01-02', IJK=62,138,36, XB=214.6,239.4,-135.2,-80.0,-0.2,14.2/
&MESH ID='Mesh17-01-01-03', IJK=62,138,36, XB=239.4,264.2,-135.2,-80.0,-0.2,14.2/
&MESH ID='Mesh17-01-02-01', IJK=93,72,36, XB=189.8,227.0,-80.0,-51.2,-0.2,14.2/
&MESH ID='Mesh17-01-02-02', IJK=93,72,36, XB=189.8,227.0,-51.2,-22.4,-0.2,14.2/
&MESH ID='Mesh17-01-02-03', IJK=93,72,36, XB=189.8,227.0,-22.4,6.4,-0.2,14.2/
&MESH ID='Mesh17-01-02-04', IJK=93,72,36, XB=227.0,264.2,-80.0,-51.2,-0.2,14.2/
&MESH ID='Mesh17-01-02-05', IJK=93,72,36, XB=227.0,264.2,-51.2,-22.4,-0.2,14.2/
&MESH ID='Mesh17-01-02-06', IJK=93,72,36, XB=227.0,264.2,-22.4,6.4,-0.2,14.2/
&MESH ID='Mesh17-02-01-01', IJK=64,138,36, XB=264.2,289.8,-135.2,-80.0,-0.2,14.2/
&MESH ID='Mesh17-02-01-02', IJK=64,138,36, XB=289.8,315.4,-135.2,-80.0,-0.2,14.2/
&MESH ID='Mesh17-02-01-03', IJK=64,138,36, XB=315.4,341.0,-135.2,-80.0,-0.2,14.2/
&MESH ID='Mesh17-02-02-01-merged-merged-01-merged-merged-merged-01', IJK=48,72,72, XB=264.2,273.8,-80.0,-65.6,-0.2,14.2/
&MESH ID='Mesh17-02-02-01-merged-merged-01-merged-merged-merged-02', IJK=48,72,72, XB=264.2,273.8,-65.6,-51.2,-0.2,14.2/
&MESH ID='Mesh17-02-02-01-merged-merged-01-merged-merged-merged-03', IJK=48,72,72, XB=264.2,273.8,-51.2,-36.8,-0.2,14.2/
&MESH ID='Mesh17-02-02-01-merged-merged-01-merged-merged-merged-04', IJK=48,72,72, XB=264.2,273.8,-36.8,-22.4,-0.2,14.2/
&MESH ID='Mesh17-02-02-01-merged-merged-01-merged-merged-merged-05', IJK=48,72,72, XB=264.2,273.8,-22.4,-8.0,-0.2,14.2/
&MESH ID='Mesh17-02-02-01-merged-merged-01-merged-merged-merged-06', IJK=48,72,72, XB=264.2,273.8,-8.0,6.4,-0.2,14.2/
&MESH ID='Mesh17-02-02-01-merged-merged-01-merged-merged-merged-07', IJK=48,72,72, XB=273.8,283.4,-80.0,-65.6,-0.2,14.2/
&MESH ID='Mesh17-02-02-01-merged-merged-01-merged-merged-merged-08', IJK=48,72,72, XB=273.8,283.4,-65.6,-51.2,-0.2,14.2/
&MESH ID='Mesh17-02-02-01-merged-merged-01-merged-merged-merged-09', IJK=48,72,72, XB=273.8,283.4,-51.2,-36.8,-0.2,14.2/
&MESH ID='Mesh17-02-02-01-merged-merged-01-merged-merged-merged-10', IJK=48,72,72, XB=273.8,283.4,-36.8,-22.4,-0.2,14.2/
&MESH ID='Mesh17-02-02-01-merged-merged-01-merged-merged-merged-11', IJK=48,72,72, XB=273.8,283.4,-22.4,-8.0,-0.2,14.2/
&MESH ID='Mesh17-02-02-01-merged-merged-01-merged-merged-merged-12', IJK=48,72,72, XB=273.8,283.4,-8.0,6.4,-0.2,14.2/
&MESH ID='Mesh17-02-02-01-merged-merged-01-merged-merged-merged-13', IJK=48,72,72, XB=283.4,293.0,-80.0,-65.6,-0.2,14.2/
&MESH ID='Mesh17-02-02-01-merged-merged-01-merged-merged-merged-14', IJK=48,72,72, XB=283.4,293.0,-65.6,-51.2,-0.2,14.2/
&MESH ID='Mesh17-02-02-01-merged-merged-01-merged-merged-merged-15', IJK=48,72,72, XB=283.4,293.0,-51.2,-36.8,-0.2,14.2/
&MESH ID='Mesh17-02-02-01-merged-merged-01-merged-merged-merged-16', IJK=48,72,72, XB=283.4,293.0,-36.8,-22.4,-0.2,14.2/
&MESH ID='Mesh17-02-02-01-merged-merged-01-merged-merged-merged-17', IJK=48,72,72, XB=283.4,293.0,-22.4,-8.0,-0.2,14.2/
&MESH ID='Mesh17-02-02-01-merged-merged-01-merged-merged-merged-18', IJK=48,72,72, XB=283.4,293.0,-8.0,6.4,-0.2,14.2/
&MESH ID='Mesh17-02-02-01-merged-merged-01-merged-merged-merged-19', IJK=48,72,72, XB=293.0,302.6,-80.0,-65.6,-0.2,14.2/
&MESH ID='Mesh17-02-02-01-merged-merged-01-merged-merged-merged-20', IJK=48,72,72, XB=293.0,302.6,-65.6,-51.2,-0.2,14.2/
! ... 28 like lines cut

&SPEC ID='SFPE WOOD_PINE_fuel', FORMULA='C1.0H1.7O0.83'/

&REAC ID='SFPE WOOD_PINE',
      FYI='SFPE Handbook, 5th Ed, Tables 36.11 and A.39 "pine"',
      FUEL='SFPE WOOD_PINE_fuel',
      SOOT_YIELD=0.015,
      HEAT_OF_COMBUSTION=1.24E+4,
      RADIATIVE_FRACTION=0.298/

&CTRL ID='invert', FUNCTION_TYPE='ALL', LATCH=.FALSE., INITIAL_STATE=.TRUE., INPUT_ID='TIMER->OUT-2'/
&DEVC ID='TIMER->OUT', QUANTITY='TIME', XYZ=189.8,-135.2,-0.2, SETPOINT=208.1, INITIAL_STATE=.TRUE./
&DEVC ID='TIMER->OUT-2', QUANTITY='TIME', XYZ=189.8,-135.2,-0.2, SETPOINT=208.1/

&MATL ID='CONCRETE',
      FYI='NBSIR 88-3752 - ATF NIST Multi-Floor Validation',
      SPECIFIC_HEAT=1.04,
      CONDUCTIVITY=1.8,
      DENSITY=2280.0/
&MATL ID='FE-CONCRETE',
      SPECIFIC_HEAT=0.84,
      CONDUCTIVITY=1.7,
      DENSITY=2500.0/
&MATL ID='BLOCKS-CONCRETE',
      SPECIFIC_HEAT=0.84,
      CONDUCTIVITY=0.3,
      DENSITY=800.0/
&MATL ID='PLASTER-BOARD',
      SPECIFIC_HEAT=1.0,
      CONDUCTIVITY=0.3,
      DENSITY=1000.0/
&MATL ID='GLASS',
      SPECIFIC_HEAT=0.84,
      CONDUCTIVITY=0.8,
      DENSITY=2500.0/
&MATL ID='STEEL',
      SPECIFIC_HEAT=0.44,
      CONDUCTIVITY=58.0,
      DENSITY=7850.0/
&MATL ID='LIME-PLASTER',
      SPECIFIC_HEAT=0.84,
      CONDUCTIVITY=0.7,
      DENSITY=1700.0/
&MATL ID='KOTARA',
      SPECIFIC_HEAT=1.5,
      CONDUCTIVITY=0.25,
      DENSITY=1300.0/

&SURF ID='CONCRETE',
      COLOR='GRAY 80',
      MATL_ID(1,1)='CONCRETE',
      MATL_MASS_FRACTION(1,1)=1.0,
      THICKNESS(1)=0.5/
&SURF ID='FE-CONCRETE',
      COLOR='GRAY 80',
      MATL_ID(1,1)='FE-CONCRETE',
      MATL_MASS_FRACTION(1,1)=1.0,
      THICKNESS(1)=0.5/
&SURF ID='BLOCKS-CONCRETE',
      COLOR='GRAY 80',
      MATL_ID(1,1)='BLOCKS-CONCRETE',
      MATL_MASS_FRACTION(1,1)=1.0,
      THICKNESS(1)=0.24/
&SURF ID='GLASS',
      RGB=153,255,255,
      TRANSPARENCY=0.470588,
      MATL_ID(1,1)='GLASS',
      MATL_MASS_FRACTION(1,1)=1.0,
      THICKNESS(1)=0.01/
&SURF ID='STEEL',
      COLOR='GRAY 60',
      MATL_ID(1,1)='STEEL',
      MATL_MASS_FRACTION(1,1)=1.0,
      THICKNESS(1)=0.4/
&SURF ID='WALL',
      RGB=204,204,204,
      TRANSPARENCY=0.490196,
      MATL_ID(1,1)='LIME-PLASTER',
      MATL_ID(2,1)='BLOCKS-CONCRETE',
      MATL_ID(3,1)='LIME-PLASTER',
      MATL_MASS_FRACTION(1,1)=1.0,
      MATL_MASS_FRACTION(2,1)=1.0,
      MATL_MASS_FRACTION(3,1)=1.0,
      THICKNESS(1:3)=0.01,0.24,0.01/
&SURF ID='CEILING',
      RGB=146,202,166,
      MATL_ID(1,1)='LIME-PLASTER',
      MATL_ID(2,1)='FE-CONCRETE',
      MATL_ID(3,1)='LIME-PLASTER',
      MATL_MASS_FRACTION(1,1)=1.0,
      MATL_MASS_FRACTION(2,1)=1.0,
      MATL_MASS_FRACTION(3,1)=1.0,
      THICKNESS(1:3)=0.01,0.24,0.01/
&SURF ID='FIRE',
      COLOR='RED',
      HRRPUA=994.06,
      RAMP_Q='FIRE_RAMP_Q',
      TMP_FRONT=300.0/
&RAMP ID='FIRE_RAMP_Q', T=0.0, F=0.0/
&RAMP ID='FIRE_RAMP_Q', T=11.0, F=0.016/
&RAMP ID='FIRE_RAMP_Q', T=22.0, F=0.062/
&RAMP ID='FIRE_RAMP_Q', T=33.0, F=0.14/
&RAMP ID='FIRE_RAMP_Q', T=44.0, F=0.249/
&RAMP ID='FIRE_RAMP_Q', T=55.0, F=0.39/
&RAMP ID='FIRE_RAMP_Q', T=66.0, F=0.561/
&RAMP ID='FIRE_RAMP_Q', T=77.0, F=0.764/
&RAMP ID='FIRE_RAMP_Q', T=88.0, F=0.998/
&RAMP ID='FIRE_RAMP_Q', T=88.1, F=1.0/

&OBST ID='Kuryna SD4 - SD5; SD6 - SD7', XB=264.2,264.6,-130.0,0.0,8.0,10.4, SURF_ID='STEEL'/ 
&OBST ID='Kuryna SD1-5 - SD6-8', XB=204.0,336.0,-78.4,-78.0,8.0,10.4, SURF_ID='STEEL'/ 
&OBST ID='Kuryna SD4 - SD5 - antresola', XB=264.2,264.6,-66.0,-26.0,3.6,5.2, SURF_ID='STEEL'/ 
&OBST ID='Ściana zewnętrzna A', XB=204.0,323.0,-0.4,0.0,0.0,10.8, SURF_ID='BLOCKS-CONCRETE'/ 
&OBST ID='Ściana zewnętrzna B', XB=335.2,335.6,-120.0,-15.0,0.0,10.8, SURF_ID='BLOCKS-CONCRETE'/ 
&OBST ID='Ściana zewnętrzna C, D, E', XB=204.0,324.0,-130.0,-129.6,0.0,10.8, SURF_ID='BLOCKS-CONCRETE'/ 
&OBST ID='Słup', XB=204.0,204.5,-0.5,0.0,0.0,10.8, SURF_ID='STEEL'/ 
&OBST ID='Słup', XB=210.0,210.5,-0.5,0.0,0.0,10.8, SURF_ID='STEEL'/ 
&OBST ID='Słup', XB=216.0,216.5,-0.5,0.0,0.0,10.8, SURF_ID='STEEL'/ 
&OBST ID='Słup', XB=221.7,222.2,-0.5,0.0,0.0,10.8, SURF_ID='STEEL'/ 
&OBST ID='Słup', XB=227.7,228.2,-0.5,0.0,0.0,10.8, SURF_ID='STEEL'/ 
&OBST ID='Słup', XB=234.0,234.5,-0.5,0.0,0.0,10.8, SURF_ID='STEEL'/ 
&OBST ID='Słup', XB=240.0,240.5,-0.5,0.0,0.0,10.8, SURF_ID='STEEL'/ 
&OBST ID='Słup', XB=246.0,246.5,-0.5,0.0,0.0,10.8, SURF_ID='STEEL'/ 
&OBST ID='Słup', XB=252.0,252.5,-0.5,0.0,0.0,10.8, SURF_ID='STEEL'/ 
&OBST ID='Słup', XB=258.0,258.5,-0.5,0.0,0.0,10.8, SURF_ID='STEEL'/ 
&OBST ID='Słup', XB=264.0,264.5,-0.5,0.0,0.0,10.8, SURF_ID='STEEL'/ 
&OBST ID='Słup', XB=269.7,270.2,-0.5,0.0,0.0,10.8, SURF_ID='STEEL'/ 
&OBST ID='Słup', XB=275.7,276.2,-0.5,0.0,0.0,10.8, SURF_ID='STEEL'/ 
&OBST ID='Słup', XB=282.0,282.5,-0.5,0.0,0.0,10.8, SURF_ID='STEEL'/ 
&OBST ID='Słup', XB=288.0,288.5,-0.5,0.0,0.0,10.8, SURF_ID='STEEL'/ 
&OBST ID='Słup', XB=294.0,294.5,-0.5,0.0,0.0,10.8, SURF_ID='STEEL'/ 
&OBST ID='Słup', XB=300.0,300.5,-0.5,0.0,0.0,10.8, SURF_ID='STEEL'/ 
&OBST ID='Słup', XB=306.0,306.5,-0.5,0.0,0.0,10.8, SURF_ID='STEEL'/ 
&OBST ID='Słup', XB=312.0,312.5,-0.5,0.0,0.0,10.8, SURF_ID='STEEL'/ 
&OBST ID='Słup', XB=318.0,318.5,-0.5,0.0,0.0,10.8, SURF_ID='STEEL'/ 
! ... 129 like lines cut
&OBST ID='Ściana zewnętrzna B', XB=204.0,204.4,-130.0,0.0,0.0,10.8, SURF_ID='BLOCKS-CONCRETE'/ 
&OBST ID='Antresola', XB=204.2,227.0,-66.0,-51.2,5.0,5.4, COLOR='GRAY 40', SURF_ID='FE-CONCRETE'/ 
&OBST ID='Antresola', XB=204.2,227.0,-51.2,-26.0,5.0,5.4, COLOR='GRAY 40', SURF_ID='FE-CONCRETE'/ 
&OBST ID='Antresola', XB=227.0,264.2,-66.0,-51.2,5.0,5.4, COLOR='GRAY 40', SURF_ID='FE-CONCRETE'/ 
&OBST ID='Antresola', XB=227.0,264.2,-51.2,-26.0,5.0,5.4, COLOR='GRAY 40', SURF_ID='FE-CONCRETE'/ 
&OBST ID='Antresola', XB=264.2,273.8,-66.0,-65.6,5.2,5.6, COLOR='GRAY 40', SURF_ID='FE-CONCRETE'/ 
&OBST ID='Antresola', XB=264.2,273.8,-65.6,-51.2,5.2,5.6, COLOR='GRAY 40', SURF_ID='FE-CONCRETE'/ 
&OBST ID='Antresola', XB=264.2,273.8,-51.2,-36.8,5.2,5.6, COLOR='GRAY 40', SURF_ID='FE-CONCRETE'/ 
&OBST ID='Antresola', XB=264.2,273.8,-36.8,-26.0,5.2,5.6, COLOR='GRAY 40', SURF_ID='FE-CONCRETE'/ 
&OBST ID='Antresola', XB=273.8,283.4,-66.0,-65.6,5.2,5.6, COLOR='GRAY 40', SURF_ID='FE-CONCRETE'/ 
&OBST ID='Antresola', XB=273.8,283.4,-65.6,-51.2,5.2,5.6, COLOR='GRAY 40', SURF_ID='FE-CONCRETE'/ 
&OBST ID='Antresola', XB=273.8,283.4,-51.2,-36.8,5.2,5.6, COLOR='GRAY 40', SURF_ID='FE-CONCRETE'/ 
&OBST ID='Antresola', XB=273.8,283.4,-36.8,-26.0,5.2,5.6, COLOR='GRAY 40', SURF_ID='FE-CONCRETE'/ 
&OBST ID='Antresola', XB=283.4,293.0,-66.0,-65.6,5.2,5.6, COLOR='GRAY 40', SURF_ID='FE-CONCRETE'/ 
&OBST ID='Antresola', XB=283.4,293.0,-65.6,-51.2,5.2,5.6, COLOR='GRAY 40', SURF_ID='FE-CONCRETE'/ 
&OBST ID='Antresola', XB=283.4,293.0,-51.2,-36.8,5.2,5.6, COLOR='GRAY 40', SURF_ID='FE-CONCRETE'/ 
&OBST ID='Antresola', XB=283.4,293.0,-36.8,-26.0,5.2,5.6, COLOR='GRAY 40', SURF_ID='FE-CONCRETE'/ 
&OBST ID='Antresola', XB=293.0,302.6,-66.0,-65.6,5.2,5.6, COLOR='GRAY 40', SURF_ID='FE-CONCRETE'/ 
&OBST ID='Antresola', XB=293.0,302.6,-65.6,-51.2,5.2,5.6, COLOR='GRAY 40', SURF_ID='FE-CONCRETE'/ 
&OBST ID='Antresola', XB=293.0,302.6,-51.2,-36.8,5.2,5.6, COLOR='GRAY 40', SURF_ID='FE-CONCRETE'/ 
&OBST ID='Antresola', XB=293.0,302.6,-36.8,-26.0,5.2,5.6, COLOR='GRAY 40', SURF_ID='FE-CONCRETE'/ 
! ... 12 like lines cut
&OBST ID='Podłoga', XB=199.0,214.6,-123.2,-114.8,-0.2,-0.2, SURF_ID='CONCRETE'/ 
&OBST ID='Podłoga', XB=199.0,214.6,-97.2,-88.8,-0.2,-0.2, SURF_ID='CONCRETE'/ 
&OBST ID='Podłoga', XB=203.8,214.6,-130.0,-123.2,-0.2,-0.2, SURF_ID='CONCRETE'/ 
&OBST ID='Podłoga', XB=203.8,214.6,-114.8,-97.2,-0.2,-0.2, SURF_ID='CONCRETE'/ 
&OBST ID='Podłoga', XB=203.8,214.6,-88.8,-80.0,-0.2,-0.2, SURF_ID='CONCRETE'/ 
&OBST ID='Podłoga', XB=210.6,214.6,-135.2,-130.0,-0.2,-0.2, SURF_ID='CONCRETE'/ 
&OBST ID='Podłoga', XB=214.6,219.0,-135.2,-130.0,-0.2,-0.2, SURF_ID='CONCRETE'/ 
&OBST ID='Podłoga', XB=214.6,239.4,-130.0,-80.0,-0.2,-0.2, SURF_ID='CONCRETE'/ 
&OBST ID='Podłoga', XB=236.6,239.4,-135.2,-130.0,-0.2,-0.2, SURF_ID='CONCRETE'/ 
&OBST ID='Podłoga', XB=239.4,245.0,-135.2,-130.0,-0.2,-0.2, SURF_ID='CONCRETE'/ 
&OBST ID='Podłoga', XB=239.4,264.2,-130.0,-80.0,-0.2,-0.2, SURF_ID='CONCRETE'/ 
&OBST ID='Podłoga', XB=254.6,263.0,-135.2,-130.0,-0.2,-0.2, SURF_ID='CONCRETE'/ 
&OBST ID='Podłoga', XB=199.0,227.0,-77.2,-68.8,-0.2,-0.2, SURF_ID='CONCRETE'/ 
&OBST ID='Podłoga', XB=203.8,227.0,-80.0,-77.2,-0.2,-0.2, SURF_ID='CONCRETE'/ 
&OBST ID='Podłoga', XB=203.8,227.0,-68.8,-51.2,-0.2,-0.2, SURF_ID='CONCRETE'/ 
&OBST ID='Podłoga', XB=203.8,227.0,-51.2,-22.4,-0.2,-0.2, SURF_ID='CONCRETE'/ 
&OBST ID='Podłoga', XB=199.0,227.0,-15.2,-6.8,-0.2,-0.2, SURF_ID='CONCRETE'/ 
&OBST ID='Podłoga', XB=203.8,227.0,-22.4,-15.2,-0.2,-0.2, SURF_ID='CONCRETE'/ 
&OBST ID='Podłoga', XB=203.8,227.0,-6.8,6.117329E-14,-0.2,-0.2, SURF_ID='CONCRETE'/ 
&OBST ID='Podłoga', XB=227.0,264.2,-80.0,-51.2,-0.2,-0.2, SURF_ID='CONCRETE'/ 
! ... 65 like lines cut
&OBST ID='Ściana wewnętrzna AB', XB=323.0,323.4,-14.6,-8.0,-2.775558E-17,10.8, SURF_ID='BLOCKS-CONCRETE'/ 
&OBST ID='Ściana wewnętrzna AB', XB=323.0,331.4,-15.0,-14.6,-2.775558E-17,10.8, SURF_ID='BLOCKS-CONCRETE'/ 
&OBST ID='Ściana wewnętrzna AB', XB=323.0,323.4,-8.0,5.981327E-13,-2.775558E-17,10.8, SURF_ID='BLOCKS-CONCRETE'/ 
&OBST ID='Ściana wewnętrzna AB', XB=331.4,336.0,-15.0,-14.6,-2.775558E-17,10.8, SURF_ID='BLOCKS-CONCRETE'/ 
&OBST ID='Ściana wewnętrzna BC', XB=323.8,324.2,-130.0,-120.4,-0.2,10.6, SURF_ID='BLOCKS-CONCRETE'/ 
&OBST ID='Ściana wewnętrzna BC', XB=323.8,335.8,-120.4,-120.0,-0.2,10.6, SURF_ID='BLOCKS-CONCRETE'/ 
&OBST ID='Strop', XB=243.0,247.8,6.117329E-14,4.8,3.4,3.8, SURF_ID='CEILING'/ 
&OBST ID='Strop', XB=253.8,262.6,6.117329E-14,4.8,3.4,3.8, SURF_ID='CEILING'/ 
&OBST ID='Strop', XB=270.0,273.8,5.981327E-13,5.0,3.6,3.8, SURF_ID='CEILING'/ 
&OBST ID='Strop', XB=273.8,278.4,5.981327E-13,5.0,3.6,3.8, SURF_ID='CEILING'/ 
&OBST ID='Strop', XB=336.0,341.0,-39.4,-36.8,3.6,3.8, SURF_ID='CEILING'/ 
&OBST ID='Strop', XB=336.0,341.0,-36.8,-30.8,3.6,3.8, SURF_ID='CEILING'/ 
&OBST ID='Strop', XB=335.8,341.0,-91.2,-82.8,3.4,3.8, SURF_ID='CEILING'/ 
&OBST ID='Strop', XB=314.6,315.4,-135.2,-130.0,3.4,3.8, SURF_ID='CEILING'/ 
&OBST ID='Strop', XB=315.4,323.0,-135.2,-130.0,3.4,3.8, SURF_ID='CEILING'/ 
&OBST ID='Strop', XB=296.6,305.0,-135.2,-130.0,3.4,3.8, SURF_ID='CEILING'/ 
&OBST ID='Strop', XB=273.4,281.8,-135.2,-130.0,3.4,3.8, SURF_ID='CEILING'/ 
&OBST ID='Strop', XB=254.6,263.0,-135.2,-130.0,3.4,3.8, SURF_ID='CEILING'/ 
&OBST ID='Strop', XB=236.6,239.4,-135.2,-130.0,3.4,3.8, SURF_ID='CEILING'/ 
&OBST ID='Strop', XB=239.4,245.0,-135.2,-130.0,3.4,3.8, SURF_ID='CEILING'/ 
&OBST ID='Strop', XB=210.6,214.6,-135.2,-130.0,3.4,3.8, SURF_ID='CEILING'/ 
&OBST ID='Strop', XB=214.6,219.0,-135.2,-130.0,3.4,3.8, SURF_ID='CEILING'/ 
&OBST ID='Strop', XB=199.0,203.8,-77.2,-68.8,3.4,3.8, SURF_ID='CEILING'/ 
&OBST ID='Strop', XB=199.0,203.8,-15.2,-6.8,3.4,3.8, SURF_ID='CEILING'/ 
&OBST ID='Strop', XB=199.0,203.8,-97.2,-88.8,3.4,3.8, SURF_ID='CEILING'/ 
&OBST ID='Strop', XB=199.0,203.8,-123.2,-114.8,3.4,3.8, SURF_ID='CEILING'/ 
&OBST ID='SD1 - włazy', XB=212.6,214.6,-124.8,-122.8,11.0,11.4, SURF_ID='GLASS'/ 
&OBST ID='SD1 - włazy', XB=214.6,215.0,-124.8,-122.8,11.0,11.4, SURF_ID='GLASS'/ 
&OBST ID='SD1 - włazy', XB=212.6,214.6,-110.8,-108.8,11.0,11.4, SURF_ID='GLASS'/ 
&OBST ID='SD1 - włazy', XB=214.6,215.0,-110.8,-108.8,11.0,11.4, SURF_ID='GLASS'/ 
&OBST ID='SD1 - włazy', XB=212.6,214.6,-98.8,-96.8,11.0,11.4, SURF_ID='GLASS'/ 
&OBST ID='SD1 - włazy', XB=214.6,215.0,-98.8,-96.8,11.0,11.4, SURF_ID='GLASS'/ 
&OBST ID='SD1 - włazy', XB=212.6,214.6,-86.8,-84.8,11.0,11.4, SURF_ID='GLASS'/ 
&OBST ID='SD1 - włazy', XB=214.6,215.0,-86.8,-84.8,11.0,11.4, SURF_ID='GLASS'/ 
&OBST ID='SD1 - włazy', XB=224.6,227.0,-124.8,-122.8,11.0,11.4, SURF_ID='GLASS'/ 
&OBST ID='SD1 - włazy', XB=224.6,227.0,-110.8,-108.8,11.0,11.4, SURF_ID='GLASS'/ 
&OBST ID='SD1 - włazy', XB=224.6,227.0,-98.8,-96.8,11.0,11.4, SURF_ID='GLASS'/ 
&OBST ID='SD1 - włazy', XB=224.6,227.0,-86.8,-84.8,11.0,11.4, SURF_ID='GLASS'/ 
&OBST ID='SD1 - włazy', XB=236.6,239.0,-124.8,-122.8,11.0,11.4, SURF_ID='GLASS'/ 
&OBST ID='SD1 - włazy', XB=236.6,239.0,-110.8,-108.8,11.0,11.4, SURF_ID='GLASS'/ 
&OBST ID='SD1 - włazy', XB=236.6,239.0,-98.8,-96.8,11.0,11.4, SURF_ID='GLASS'/ 
&OBST ID='SD1 - włazy', XB=236.6,239.0,-86.8,-84.8,11.0,11.4, SURF_ID='GLASS'/ 
&OBST ID='SD1 - włazy', XB=248.6,251.0,-124.8,-122.8,11.0,11.4, SURF_ID='GLASS'/ 
&OBST ID='SD1 - włazy', XB=248.6,251.0,-110.8,-108.8,11.0,11.4, SURF_ID='GLASS'/ 
&OBST ID='SD1 - włazy', XB=248.6,251.0,-98.8,-96.8,11.0,11.4, SURF_ID='GLASS'/ 
&OBST ID='SD1 - włazy', XB=248.6,251.0,-86.8,-84.8,11.0,11.4, SURF_ID='GLASS'/ 
! ... 20 like lines cut
&OBST ID='SD1 - obudowy', XB=212.6,213.0,-124.4,-123.2,10.6,11.0, SURF_ID='STEEL'/ 
&OBST ID='SD1 - obudowy', XB=212.6,214.6,-124.8,-124.4,10.6,11.0, SURF_ID='STEEL'/ 
&OBST ID='SD1 - obudowy', XB=212.6,214.6,-123.2,-122.8,10.6,11.0, SURF_ID='STEEL'/ 
&OBST ID='SD1 - obudowy', XB=214.6,215.0,-124.8,-122.8,10.6,11.0, SURF_ID='STEEL'/ 
&OBST ID='SD1 - obudowy', XB=212.6,213.0,-110.4,-109.2,10.6,11.0, SURF_ID='STEEL'/ 
&OBST ID='SD1 - obudowy', XB=212.6,214.6,-110.8,-110.4,10.6,11.0, SURF_ID='STEEL'/ 
&OBST ID='SD1 - obudowy', XB=212.6,214.6,-109.2,-108.8,10.6,11.0, SURF_ID='STEEL'/ 
&OBST ID='SD1 - obudowy', XB=214.6,215.0,-110.8,-108.8,10.6,11.0, SURF_ID='STEEL'/ 
&OBST ID='SD1 - obudowy', XB=212.6,213.0,-98.4,-97.2,10.6,11.0, SURF_ID='STEEL'/ 
&OBST ID='SD1 - obudowy', XB=212.6,214.6,-98.8,-98.4,10.6,11.0, SURF_ID='STEEL'/ 
&OBST ID='SD1 - obudowy', XB=212.6,214.6,-97.2,-96.8,10.6,11.0, SURF_ID='STEEL'/ 
&OBST ID='SD1 - obudowy', XB=214.6,215.0,-98.8,-96.8,10.6,11.0, SURF_ID='STEEL'/ 
&OBST ID='SD1 - obudowy', XB=212.6,213.0,-86.4,-85.2,10.6,11.0, SURF_ID='STEEL'/ 
&OBST ID='SD1 - obudowy', XB=212.6,214.6,-86.8,-86.4,10.6,11.0, SURF_ID='STEEL'/ 
&OBST ID='SD1 - obudowy', XB=212.6,214.6,-85.2,-84.8,10.6,11.0, SURF_ID='STEEL'/ 
&OBST ID='SD1 - obudowy', XB=214.6,215.0,-86.8,-84.8,10.6,11.0, SURF_ID='STEEL'/ 
&OBST ID='SD1 - obudowy', XB=224.6,225.0,-124.4,-123.2,10.6,11.0, SURF_ID='STEEL'/ 
&OBST ID='SD1 - obudowy', XB=224.6,227.0,-124.8,-124.4,10.6,11.0, SURF_ID='STEEL'/ 
&OBST ID='SD1 - obudowy', XB=224.6,227.0,-123.2,-122.8,10.6,11.0, SURF_ID='STEEL'/ 
&OBST ID='SD1 - obudowy', XB=226.6,227.0,-124.4,-123.2,10.6,11.0, SURF_ID='STEEL'/ 
! ... 350 like lines cut
&OBST ID='SD4 - włazy', XB=212.6,215.0,-59.6,-58.0,11.0,11.4, SURF_ID='GLASS'/ 
&OBST ID='SD4 - włazy', XB=224.6,227.0,-72.8,-70.8,11.0,11.4, SURF_ID='GLASS'/ 
&OBST ID='SD4 - włazy', XB=224.6,227.0,-59.6,-58.0,11.0,11.4, SURF_ID='GLASS'/ 
&OBST ID='SD4 - włazy', XB=212.6,215.0,-72.8,-70.8,11.0,11.4, SURF_ID='GLASS'/ 
&OBST ID='SD4 - włazy', XB=224.6,227.0,-34.8,-32.8,11.0,11.4, SURF_ID='GLASS'/ 
&OBST ID='SD4 - włazy', XB=224.6,227.0,-46.8,-44.8,11.0,11.4, SURF_ID='GLASS'/ 
&OBST ID='SD4 - włazy', XB=212.6,215.0,-23.6,-22.4,11.0,11.4, SURF_ID='GLASS'/ 
&OBST ID='SD4 - włazy', XB=212.6,215.0,-34.8,-32.8,11.0,11.4, SURF_ID='GLASS'/ 
&OBST ID='SD4 - włazy', XB=224.6,227.0,-23.6,-22.4,11.0,11.4, SURF_ID='GLASS'/ 
&OBST ID='SD4 - włazy', XB=212.6,215.0,-46.8,-44.8,11.0,11.4, SURF_ID='GLASS'/ 
&OBST ID='SD4 - włazy', XB=212.6,215.0,-8.8,-6.8,11.0,11.4, SURF_ID='GLASS'/ 
&OBST ID='SD4 - włazy', XB=224.6,227.0,-8.8,-6.8,11.0,11.4, SURF_ID='GLASS'/ 
&OBST ID='SD4 - włazy', XB=224.6,227.0,-22.4,-22.0,11.0,11.4, SURF_ID='GLASS'/ 
&OBST ID='SD4 - włazy', XB=212.6,215.0,-22.4,-22.0,11.0,11.4, SURF_ID='GLASS'/ 
&OBST ID='SD4 - włazy', XB=236.6,239.0,-59.6,-58.0,11.0,11.4, SURF_ID='GLASS'/ 
&OBST ID='SD4 - włazy', XB=236.6,239.0,-72.8,-70.8,11.0,11.4, SURF_ID='GLASS'/ 
&OBST ID='SD4 - włazy', XB=260.6,263.0,-72.8,-70.8,11.0,11.4, SURF_ID='GLASS'/ 
&OBST ID='SD4 - włazy', XB=260.6,263.0,-59.6,-58.0,11.0,11.4, SURF_ID='GLASS'/ 
&OBST ID='SD4 - włazy', XB=248.6,251.0,-72.8,-70.8,11.0,11.4, SURF_ID='GLASS'/ 
&OBST ID='SD4 - włazy', XB=248.6,251.0,-59.6,-58.0,11.0,11.4, SURF_ID='GLASS'/ 
! ... 15 like lines cut
&OBST ID='SD5 - włazy', XB=271.4,273.8,-7.4,-5.0,11.2,11.4, SURF_ID='GLASS', DEVC_ID='TIMER->OUT'/ 
&OBST ID='SD5 - włazy', XB=284.4,287.6,-7.0,-5.0,11.2,11.4, SURF_ID='GLASS', DEVC_ID='TIMER->OUT'/ 
&OBST ID='SD5 - włazy', XB=271.4,273.8,-21.6,-19.2,11.2,11.4, SURF_ID='GLASS', DEVC_ID='TIMER->OUT'/ 
&OBST ID='SD5 - włazy', XB=271.4,273.8,-34.4,-32.0,11.2,11.4, SURF_ID='GLASS', DEVC_ID='TIMER->OUT'/ 
&OBST ID='SD5 - włazy', XB=271.4,273.8,-47.2,-44.8,11.2,11.4, SURF_ID='GLASS', DEVC_ID='TIMER->OUT'/ 
&OBST ID='SD5 - włazy', XB=271.4,273.8,-60.0,-57.6,11.2,11.4, SURF_ID='GLASS', DEVC_ID='TIMER->OUT'/ 
&OBST ID='SD5 - włazy', XB=271.4,273.8,-72.8,-70.4,11.2,11.4, SURF_ID='GLASS', DEVC_ID='TIMER->OUT'/ 
&OBST ID='SD5 - włazy', XB=296.4,298.8,-34.4,-32.0,11.2,11.4, SURF_ID='GLASS', DEVC_ID='TIMER->OUT'/ 
&OBST ID='SD5 - włazy', XB=296.4,298.8,-47.2,-44.8,11.2,11.4, SURF_ID='GLASS', DEVC_ID='TIMER->OUT'/ 
&OBST ID='SD5 - włazy', XB=296.4,298.8,-60.0,-57.6,11.2,11.4, SURF_ID='GLASS', DEVC_ID='TIMER->OUT'/ 
&OBST ID='SD5 - włazy', XB=296.4,298.8,-72.8,-70.4,11.2,11.4, SURF_ID='GLASS', DEVC_ID='TIMER->OUT'/ 
&OBST ID='SD5 - włazy', XB=296.4,298.8,-21.6,-19.2,11.2,11.4, SURF_ID='GLASS', DEVC_ID='TIMER->OUT'/ 
&OBST ID='SD5 - włazy', XB=296.4,298.8,-7.4,-5.0,11.2,11.4, SURF_ID='GLASS', DEVC_ID='TIMER->OUT'/ 
&OBST ID='SD5 - włazy', XB=284.4,287.6,-21.2,-19.2,11.2,11.4, SURF_ID='GLASS', DEVC_ID='TIMER->OUT'/ 
&OBST ID='SD5 - włazy', XB=284.4,287.6,-34.0,-32.0,11.2,11.4, SURF_ID='GLASS', DEVC_ID='TIMER->OUT'/ 
&OBST ID='SD5 - włazy', XB=284.4,287.6,-46.8,-44.8,11.2,11.4, SURF_ID='GLASS', DEVC_ID='TIMER->OUT'/ 
&OBST ID='SD5 - włazy', XB=284.4,287.6,-72.4,-70.4,11.2,11.4, SURF_ID='GLASS', DEVC_ID='TIMER->OUT'/ 
&OBST ID='SD5 - włazy', XB=284.4,287.6,-59.6,-57.6,11.2,11.4, SURF_ID='GLASS', DEVC_ID='TIMER->OUT'/ 
&OBST ID='SD5 - włazy', XB=308.4,311.6,-7.0,-5.0,11.2,11.4, SURF_ID='GLASS', DEVC_ID='TIMER->OUT'/ 
&OBST ID='SD5 - włazy', XB=308.4,311.6,-21.2,-19.2,11.2,11.4, SURF_ID='GLASS', DEVC_ID='TIMER->OUT'/ 
! ... 4 like lines cut
&OBST ID='Ściany', XB=337.4,339.8,-39.4,-39.2,-2.775558E-17,2.8, SURF_ID='WALL', CTRL_ID='invert'/ 
&OBST ID='Ściany', XB=244.2,246.6,4.4,4.8,-0.2,2.6, SURF_ID='WALL', CTRL_ID='invert'/ 
&OBST ID='Ściany', XB=262.2,262.6,1.2,3.6,-0.2,2.6, SURF_ID='WALL', CTRL_ID='invert'/ 
&OBST ID='Ściany', XB=278.2,278.4,1.4,3.8,-2.775558E-17,2.8, SURF_ID='WALL', CTRL_ID='invert'/ 
&OBST ID='Ściany', XB=337.4,339.8,-91.2,-91.2,-0.2,2.6, SURF_ID='WALL', CTRL_ID='invert'/ 
&OBST ID='Ściany', XB=296.6,296.6,-134.0,-131.6,-0.2,2.6, SURF_ID='WALL', CTRL_ID='invert'/ 
&OBST ID='Ściany', XB=273.4,273.8,-134.0,-131.6,-0.2,2.6, SURF_ID='WALL', CTRL_ID='invert'/ 
&OBST ID='Ściany', XB=254.6,254.6,-134.0,-131.6,-0.2,2.6, SURF_ID='WALL', CTRL_ID='invert'/ 
&OBST ID='Ściany', XB=210.6,210.6,-134.0,-131.6,-0.2,2.6, SURF_ID='WALL', CTRL_ID='invert'/ 
&OBST ID='Ściany', XB=236.6,236.6,-134.0,-131.6,-0.2,2.6, SURF_ID='WALL', CTRL_ID='invert'/ 
&OBST ID='Ściany', XB=200.2,202.6,-7.2,-6.8,-0.2,2.6, SURF_ID='WALL', CTRL_ID='invert'/ 
&OBST ID='Ściany', XB=200.2,202.6,-89.2,-88.8,-0.2,2.6, SURF_ID='WALL', CTRL_ID='invert'/ 
&OBST ID='Ściany', XB=200.2,202.6,-115.2,-114.8,-0.2,2.6, SURF_ID='WALL', CTRL_ID='invert'/ 
&OBST ID='Ściany', XB=314.6,314.6,-134.0,-131.6,-0.2,2.6, SURF_ID='WALL', CTRL_ID='invert'/ 
&OBST ID='Ściany', XB=200.2,202.6,-69.2,-68.8,-0.2,2.6, SURF_ID='WALL', CTRL_ID='invert'/ 
&OBST ID='Ściany', XB=336.0,337.4,-39.4,-39.2,-2.775558E-17,3.6, SURF_ID='WALL'/ 
&OBST ID='Ściany', XB=337.4,339.8,-39.4,-39.2,2.8,3.6, SURF_ID='WALL'/ 
&OBST ID='Ściany', XB=339.8,341.0,-39.4,-39.2,-2.775558E-17,3.6, SURF_ID='WALL'/ 
&OBST ID='Ściany', XB=340.8,341.0,-39.2,-36.8,-2.775558E-17,3.6, SURF_ID='WALL'/ 
&OBST ID='Ściany', XB=336.0,341.0,-31.0,-30.8,-2.775558E-17,3.6, SURF_ID='WALL'/ 
&OBST ID='Ściany', XB=340.8,341.0,-36.8,-31.0,-2.775558E-17,3.6, SURF_ID='WALL'/ 
&OBST ID='Ściany', XB=243.0,244.2,4.4,4.8,-0.2,3.4, SURF_ID='WALL'/ 
&OBST ID='Ściany', XB=244.2,246.6,4.4,4.8,2.6,3.4, SURF_ID='WALL'/ 
&OBST ID='Ściany', XB=246.6,247.8,4.4,4.8,-0.2,3.4, SURF_ID='WALL'/ 
&OBST ID='Ściany', XB=243.0,243.0,6.117329E-14,4.4,-0.2,3.4, SURF_ID='WALL'/ 
&OBST ID='Ściany', XB=247.8,247.8,6.117329E-14,4.4,-0.2,3.4, SURF_ID='WALL'/ 
&OBST ID='Ściany', XB=253.8,254.2,6.117329E-14,4.8,-0.2,3.4, SURF_ID='WALL'/ 
&OBST ID='Ściany', XB=262.2,262.6,6.117329E-14,1.2,-0.2,3.4, SURF_ID='WALL'/ 
&OBST ID='Ściany', XB=262.2,262.6,3.6,4.8,-0.2,3.4, SURF_ID='WALL'/ 
&OBST ID='Ściany', XB=262.2,262.6,1.2,3.6,2.6,3.4, SURF_ID='WALL'/ 
&OBST ID='Ściany', XB=254.2,262.2,4.8,4.8,-0.2,3.4, SURF_ID='WALL'/ 
&OBST ID='Ściany', XB=270.0,270.2,5.981327E-13,4.8,-2.775558E-17,3.6, SURF_ID='WALL'/ 
&OBST ID='Ściany', XB=270.0,273.8,4.8,5.0,-2.775558E-17,3.6, SURF_ID='WALL'/ 
&OBST ID='Ściany', XB=273.8,278.4,4.8,5.0,-2.775558E-17,3.6, SURF_ID='WALL'/ 
&OBST ID='Ściany', XB=278.2,278.4,5.981327E-13,1.4,-2.775558E-17,3.6, SURF_ID='WALL'/ 
! ... 60 like lines cut
&OBST ID='Dach', XB=271.8,273.4,-72.4,-70.8,10.4,10.8, COLOR='INVISIBLE', SURF_ID='STEEL', CTRL_ID='invert'/ 
&OBST ID='Dach', XB=271.8,273.4,-59.6,-58.0,10.4,10.8, COLOR='INVISIBLE', SURF_ID='STEEL', CTRL_ID='invert'/ 
&OBST ID='Dach', XB=271.8,273.4,-46.8,-45.2,10.4,10.8, COLOR='INVISIBLE', SURF_ID='STEEL', CTRL_ID='invert'/ 
&OBST ID='Dach', XB=271.8,273.4,-34.0,-32.4,10.4,10.8, COLOR='INVISIBLE', SURF_ID='STEEL', CTRL_ID='invert'/ 
&OBST ID='Dach', XB=271.8,273.4,-21.2,-19.6,10.4,10.8, COLOR='INVISIBLE', SURF_ID='STEEL', CTRL_ID='invert'/ 
&OBST ID='Dach', XB=271.8,273.4,-7.0,-5.4,10.4,10.8, COLOR='INVISIBLE', SURF_ID='STEEL', CTRL_ID='invert'/ 
&OBST ID='Dach', XB=284.8,287.2,-72.0,-70.8,10.4,10.8, COLOR='INVISIBLE', SURF_ID='STEEL', CTRL_ID='invert'/ 
&OBST ID='Dach', XB=284.8,287.2,-59.2,-58.0,10.4,10.8, COLOR='INVISIBLE', SURF_ID='STEEL', CTRL_ID='invert'/ 
&OBST ID='Dach', XB=284.8,287.2,-46.4,-45.2,10.4,10.8, COLOR='INVISIBLE', SURF_ID='STEEL', CTRL_ID='invert'/ 
&OBST ID='Dach', XB=284.8,287.2,-33.6,-32.4,10.4,10.8, COLOR='INVISIBLE', SURF_ID='STEEL', CTRL_ID='invert'/ 
&OBST ID='Dach', XB=284.8,287.2,-20.8,-19.6,10.4,10.8, COLOR='INVISIBLE', SURF_ID='STEEL', CTRL_ID='invert'/ 
&OBST ID='Dach', XB=284.8,287.2,-6.6,-5.4,10.4,10.8, COLOR='INVISIBLE', SURF_ID='STEEL', CTRL_ID='invert'/ 
&OBST ID='Dach', XB=296.8,298.4,-72.4,-70.8,10.4,10.8, COLOR='INVISIBLE', SURF_ID='STEEL', CTRL_ID='invert'/ 
&OBST ID='Dach', XB=296.8,298.4,-59.6,-58.0,10.4,10.8, COLOR='INVISIBLE', SURF_ID='STEEL', CTRL_ID='invert'/ 
&OBST ID='Dach', XB=296.8,298.4,-46.8,-45.2,10.4,10.8, COLOR='INVISIBLE', SURF_ID='STEEL', CTRL_ID='invert'/ 
&OBST ID='Dach', XB=296.8,298.4,-34.0,-32.4,10.4,10.8, COLOR='INVISIBLE', SURF_ID='STEEL', CTRL_ID='invert'/ 
&OBST ID='Dach', XB=296.8,298.4,-21.2,-19.6,10.4,10.8, COLOR='INVISIBLE', SURF_ID='STEEL', CTRL_ID='invert'/ 
&OBST ID='Dach', XB=296.8,298.4,-7.0,-5.4,10.4,10.8, COLOR='INVISIBLE', SURF_ID='STEEL', CTRL_ID='invert'/ 
&OBST ID='Dach', XB=308.8,311.2,-72.0,-70.8,10.4,10.8, COLOR='INVISIBLE', SURF_ID='STEEL', CTRL_ID='invert'/ 
&OBST ID='Dach', XB=308.8,311.2,-59.2,-58.0,10.4,10.8, COLOR='INVISIBLE', SURF_ID='STEEL', CTRL_ID='invert'/ 
! ... 4 like lines cut
&OBST ID='Dach', XB=203.8,214.6,-130.0,-80.0,10.2,10.6, COLOR='INVISIBLE', SURF_ID='STEEL'/ 
&OBST ID='Dach', XB=214.6,239.4,-130.0,-80.0,10.2,10.6, COLOR='INVISIBLE', SURF_ID='STEEL'/ 
&OBST ID='Dach', XB=239.4,264.2,-130.0,-80.0,10.2,10.6, COLOR='INVISIBLE', SURF_ID='STEEL'/ 
&OBST ID='Dach', XB=203.8,227.0,-80.0,-51.2,10.2,10.6, COLOR='INVISIBLE', SURF_ID='STEEL'/ 
&OBST ID='Dach', XB=203.8,227.0,-51.2,-22.4,10.2,10.6, COLOR='INVISIBLE', SURF_ID='STEEL'/ 
&OBST ID='Dach', XB=203.8,227.0,-22.4,6.117329E-14,10.2,10.6, COLOR='INVISIBLE', SURF_ID='STEEL'/ 
&OBST ID='Dach', XB=227.0,264.2,-80.0,-51.2,10.2,10.6, COLOR='INVISIBLE', SURF_ID='STEEL'/ 
&OBST ID='Dach', XB=227.0,264.2,-51.2,-22.4,10.2,10.6, COLOR='INVISIBLE', SURF_ID='STEEL'/ 
&OBST ID='Dach', XB=227.0,264.2,-22.4,6.117329E-14,10.2,10.6, COLOR='INVISIBLE', SURF_ID='STEEL'/ 
&OBST ID='Dach', XB=264.2,289.8,-130.0,-80.0,10.2,10.6, COLOR='INVISIBLE', SURF_ID='STEEL'/ 
&OBST ID='Dach', XB=289.8,315.4,-130.0,-80.0,10.2,10.6, COLOR='INVISIBLE', SURF_ID='STEEL'/ 
&OBST ID='Dach', XB=315.4,335.8,-130.0,-80.0,10.2,10.6, COLOR='INVISIBLE', SURF_ID='STEEL'/ 
&OBST ID='Dach', XB=264.2,271.8,-72.4,-70.8,10.4,10.8, COLOR='INVISIBLE', SURF_ID='STEEL'/ 
&OBST ID='Dach', XB=264.2,273.8,-80.0,-72.4,10.4,10.8, COLOR='INVISIBLE', SURF_ID='STEEL'/ 
&OBST ID='Dach', XB=264.2,273.8,-70.8,-65.6,10.4,10.8, COLOR='INVISIBLE', SURF_ID='STEEL'/ 
&OBST ID='Dach', XB=273.4,273.8,-72.4,-70.8,10.4,10.8, COLOR='INVISIBLE', SURF_ID='STEEL'/ 
&OBST ID='Dach', XB=264.2,271.8,-59.6,-58.0,10.4,10.8, COLOR='INVISIBLE', SURF_ID='STEEL'/ 
&OBST ID='Dach', XB=264.2,273.8,-65.6,-59.6,10.4,10.8, COLOR='INVISIBLE', SURF_ID='STEEL'/ 
&OBST ID='Dach', XB=264.2,273.8,-58.0,-51.2,10.4,10.8, COLOR='INVISIBLE', SURF_ID='STEEL'/ 
&OBST ID='Dach', XB=273.4,273.8,-59.6,-58.0,10.4,10.8, COLOR='INVISIBLE', SURF_ID='STEEL'/ 
! ... 112 like lines cut

&HOLE ID='Otwór do hali', XB=243.2,247.8,-1.0,0.2,0.0,3.6/ 
&HOLE ID='Otwór do hali', XB=254.2,259.7,-1.0,0.2,0.0,3.6/ 
&HOLE ID='Otwór do hali', XB=270.2,275.7,-1.0,0.2,0.0,3.6/ 
&HOLE ID='Otwór do hali', XB=335.0,336.2,-39.1,-33.1,0.0,3.6/ 
&HOLE ID='Otwór do hali', XB=335.0,336.2,-91.1,-85.1,0.0,3.6/ 
&HOLE ID='Otwór do hali', XB=316.8,322.8,-130.2,-129.0,0.0,3.6/ 
&HOLE ID='Otwór do hali', XB=298.8,304.8,-130.2,-129.0,0.0,3.6/ 
&HOLE ID='Otwór do hali', XB=276.3,281.8,-130.2,-129.0,0.0,3.6/ 
&HOLE ID='Otwór do hali', XB=256.8,262.8,-130.2,-129.0,0.0,3.6/ 
&HOLE ID='Otwór do hali', XB=239.3,244.8,-130.2,-129.0,0.0,3.6/ 
&HOLE ID='Otwór do hali', XB=212.8,218.8,-130.2,-129.0,0.0,3.6/ 
&HOLE ID='Otwór do hali', XB=203.8,205.0,-75.0,-69.0,0.0,3.6/ 
&HOLE ID='Otwór do hali', XB=203.8,205.0,-13.0,-7.0,0.0,3.6/ 
&HOLE ID='Otwór do hali', XB=203.8,205.0,-95.0,-89.0,0.0,3.6/ 
&HOLE ID='Otwór do hali', XB=203.8,205.0,-121.0,-115.0,0.0,3.6/ 
&HOLE ID='SD1 - otwory', XB=213.0,214.64,-124.4,-123.2,10.2,11.0/ 
&HOLE ID='SD1 - otwory', XB=214.56,215.0,-124.4,-123.2,10.2,11.0/ 
&HOLE ID='SD1 - otwory', XB=213.0,214.64,-110.4,-109.2,10.2,11.0/ 
&HOLE ID='SD1 - otwory', XB=214.56,215.0,-110.4,-109.2,10.2,11.0/ 
&HOLE ID='SD1 - otwory', XB=213.0,214.64,-98.4,-97.2,10.2,11.0/ 
&HOLE ID='SD1 - otwory', XB=214.56,215.0,-98.4,-97.2,10.2,11.0/ 
&HOLE ID='SD1 - otwory', XB=213.0,214.64,-86.4,-85.2,10.2,11.0/ 
&HOLE ID='SD1 - otwory', XB=214.56,215.0,-86.4,-85.2,10.2,11.0/ 
&HOLE ID='SD1 - otwory', XB=225.0,226.6,-124.4,-123.2,10.2,11.0/ 
&HOLE ID='SD1 - otwory', XB=225.0,226.6,-110.4,-109.2,10.2,11.0/ 
&HOLE ID='SD1 - otwory', XB=225.0,226.6,-98.4,-97.2,10.2,11.0/ 
&HOLE ID='SD1 - otwory', XB=225.0,226.6,-86.4,-85.2,10.2,11.0/ 
&HOLE ID='SD1 - otwory', XB=237.0,238.6,-124.4,-123.2,10.2,11.0/ 
&HOLE ID='SD1 - otwory', XB=237.0,238.6,-110.4,-109.2,10.2,11.0/ 
&HOLE ID='SD1 - otwory', XB=237.0,238.6,-98.4,-97.2,10.2,11.0/ 
&HOLE ID='SD1 - otwory', XB=237.0,238.6,-86.4,-85.2,10.2,11.0/ 
&HOLE ID='SD1 - otwory', XB=249.0,250.6,-124.4,-123.2,10.2,11.0/ 
&HOLE ID='SD1 - otwory', XB=249.0,250.6,-110.4,-109.2,10.2,11.0/ 
&HOLE ID='SD1 - otwory', XB=249.0,250.6,-98.4,-97.2,10.2,11.0/ 
&HOLE ID='SD1 - otwory', XB=249.0,250.6,-86.4,-85.2,10.2,11.0/ 
! ... 55 like lines cut

&VENT ID='Mesh Vent: Mesh17-01-01-01 [XMIN]', SURF_ID='OPEN', XB=189.8,189.8,-135.2,-80.0,-0.2,14.2, COLOR='INVISIBLE'/ 
&VENT ID='Mesh Vent: Mesh17-01-01-01 [YMIN]', SURF_ID='OPEN', XB=189.8,214.6,-135.2,-135.2,-0.2,14.2, COLOR='INVISIBLE'/ 
&VENT ID='Mesh Vent: Mesh17-01-01-01 [ZMAX]', SURF_ID='OPEN', XB=189.8,214.6,-135.2,-80.0,14.2,14.2, COLOR='INVISIBLE'/ 
&VENT ID='Mesh Vent: Mesh17-01-01-02 [YMIN]', SURF_ID='OPEN', XB=214.6,239.4,-135.2,-135.2,-0.2,14.2, COLOR='INVISIBLE'/ 
&VENT ID='Mesh Vent: Mesh17-01-01-02 [ZMAX]', SURF_ID='OPEN', XB=214.6,239.4,-135.2,-80.0,14.2,14.2, COLOR='INVISIBLE'/ 
&VENT ID='Mesh Vent: Mesh17-01-01-03 [YMIN]', SURF_ID='OPEN', XB=239.4,264.2,-135.2,-135.2,-0.2,14.2, COLOR='INVISIBLE'/ 
&VENT ID='Mesh Vent: Mesh17-01-01-03 [ZMAX]', SURF_ID='OPEN', XB=239.4,264.2,-135.2,-80.0,14.2,14.2, COLOR='INVISIBLE'/ 
&VENT ID='Mesh Vent: Mesh17-01-02-01 [XMIN]', SURF_ID='OPEN', XB=189.8,189.8,-80.0,-51.2,-0.2,14.2, COLOR='INVISIBLE'/ 
&VENT ID='Mesh Vent: Mesh17-01-02-01 [ZMAX]', SURF_ID='OPEN', XB=189.8,227.0,-80.0,-51.2,14.2,14.2, COLOR='INVISIBLE'/ 
&VENT ID='Mesh Vent: Mesh17-01-02-02 [XMIN]', SURF_ID='OPEN', XB=189.8,189.8,-51.2,-22.4,-0.2,14.2, COLOR='INVISIBLE'/ 
&VENT ID='Mesh Vent: Mesh17-01-02-02 [ZMAX]', SURF_ID='OPEN', XB=189.8,227.0,-51.2,-22.4,14.2,14.2, COLOR='INVISIBLE'/ 
&VENT ID='Mesh Vent: Mesh17-01-02-03 [XMIN]', SURF_ID='OPEN', XB=189.8,189.8,-22.4,6.4,-0.2,14.2, COLOR='INVISIBLE'/ 
&VENT ID='Mesh Vent: Mesh17-01-02-03 [YMAX]', SURF_ID='OPEN', XB=189.8,227.0,6.4,6.4,-0.2,14.2, COLOR='INVISIBLE'/ 
&VENT ID='Mesh Vent: Mesh17-01-02-03 [ZMAX]', SURF_ID='OPEN', XB=189.8,227.0,-22.4,6.4,14.2,14.2, COLOR='INVISIBLE'/ 
&VENT ID='Mesh Vent: Mesh17-01-02-04 [ZMAX]', SURF_ID='OPEN', XB=227.0,264.2,-80.0,-51.2,14.2,14.2, COLOR='INVISIBLE'/ 
&VENT ID='Mesh Vent: Mesh17-01-02-05 [ZMAX]', SURF_ID='OPEN', XB=227.0,264.2,-51.2,-22.4,14.2,14.2, COLOR='INVISIBLE'/ 
&VENT ID='Mesh Vent: Mesh17-01-02-06 [YMAX]', SURF_ID='OPEN', XB=227.0,264.2,6.4,6.4,-0.2,14.2, COLOR='INVISIBLE'/ 
&VENT ID='Mesh Vent: Mesh17-01-02-06 [ZMAX]', SURF_ID='OPEN', XB=227.0,264.2,-22.4,6.4,14.2,14.2, COLOR='INVISIBLE'/ 
&VENT ID='Mesh Vent: Mesh17-02-01-01 [YMIN]', SURF_ID='OPEN', XB=264.2,289.8,-135.2,-135.2,-0.2,14.2, COLOR='INVISIBLE'/ 
&VENT ID='Mesh Vent: Mesh17-02-01-01 [ZMAX]', SURF_ID='OPEN', XB=264.2,289.8,-135.2,-80.0,14.2,14.2, COLOR='INVISIBLE'/ 
&VENT ID='Mesh Vent: Mesh17-02-01-02 [YMIN]', SURF_ID='OPEN', XB=289.8,315.4,-135.2,-135.2,-0.2,14.2, COLOR='INVISIBLE'/ 
&VENT ID='Mesh Vent: Mesh17-02-01-02 [ZMAX]', SURF_ID='OPEN', XB=289.8,315.4,-135.2,-80.0,14.2,14.2, COLOR='INVISIBLE'/ 
&VENT ID='Mesh Vent: Mesh17-02-01-03 [XMAX]', SURF_ID='OPEN', XB=341.0,341.0,-135.2,-80.0,-0.2,14.2, COLOR='INVISIBLE'/ 
&VENT ID='Mesh Vent: Mesh17-02-01-03 [YMIN]', SURF_ID='OPEN', XB=315.4,341.0,-135.2,-135.2,-0.2,14.2, COLOR='INVISIBLE'/ 
&VENT ID='Mesh Vent: Mesh17-02-01-03 [ZMAX]', SURF_ID='OPEN', XB=315.4,341.0,-135.2,-80.0,14.2,14.2, COLOR='INVISIBLE'/ 
&VENT ID='Mesh Vent: Mesh17-02-02-01-merged-merged-01-merged-merged-merged-01 [ZMAX]', SURF_ID='OPEN', XB=264.2,273.8,-80.0,-65.6,14.2,14.2, COLOR='INVISIBLE'/ 
&VENT ID='Mesh Vent: Mesh17-02-02-01-merged-merged-01-merged-merged-merged-02 [ZMAX]', SURF_ID='OPEN', XB=264.2,273.8,-65.6,-51.2,14.2,14.2, COLOR='INVISIBLE'/ 
&VENT ID='Mesh Vent: Mesh17-02-02-01-merged-merged-01-merged-merged-merged-03 [ZMAX]', SURF_ID='OPEN', XB=264.2,273.8,-51.2,-36.8,14.2,14.2, COLOR='INVISIBLE'/ 
&VENT ID='Mesh Vent: Mesh17-02-02-01-merged-merged-01-merged-merged-merged-04 [ZMAX]', SURF_ID='OPEN', XB=264.2,273.8,-36.8,-22.4,14.2,14.2, COLOR='INVISIBLE'/ 
&VENT ID='Mesh Vent: Mesh17-02-02-01-merged-merged-01-merged-merged-merged-05 [ZMAX]', SURF_ID='OPEN', XB=264.2,273.8,-22.4,-8.0,14.2,14.2, COLOR='INVISIBLE'/ 
&VENT ID='Mesh Vent: Mesh17-02-02-01-merged-merged-01-merged-merged-merged-06 [YMAX]', SURF_ID='OPEN', XB=264.2,273.8,6.4,6.4,-0.2,14.2, COLOR='INVISIBLE'/ 
&VENT ID='Mesh Vent: Mesh17-02-02-01-merged-merged-01-merged-merged-merged-06 [ZMAX]', SURF_ID='OPEN', XB=264.2,273.8,-8.0,6.4,14.2,14.2, COLOR='INVISIBLE'/ 
&VENT ID='Mesh Vent: Mesh17-02-02-01-merged-merged-01-merged-merged-merged-07 [ZMAX]', SURF_ID='OPEN', XB=273.8,283.4,-80.0,-65.6,14.2,14.2, COLOR='INVISIBLE'/ 
&VENT ID='Mesh Vent: Mesh17-02-02-01-merged-merged-01-merged-merged-merged-08 [ZMAX]', SURF_ID='OPEN', XB=273.8,283.4,-65.6,-51.2,14.2,14.2, COLOR='INVISIBLE'/ 
&VENT ID='Mesh Vent: Mesh17-02-02-01-merged-merged-01-merged-merged-merged-09 [ZMAX]', SURF_ID='OPEN', XB=273.8,283.4,-51.2,-36.8,14.2,14.2, COLOR='INVISIBLE'/ 
&VENT ID='Mesh Vent: Mesh17-02-02-01-merged-merged-01-merged-merged-merged-10 [ZMAX]', SURF_ID='OPEN', XB=273.8,283.4,-36.8,-22.4,14.2,14.2, COLOR='INVISIBLE'/ 
&VENT ID='Mesh Vent: Mesh17-02-02-01-merged-merged-01-merged-merged-merged-11 [ZMAX]', SURF_ID='OPEN', XB=273.8,283.4,-22.4,-8.0,14.2,14.2, COLOR='INVISIBLE'/ 
&VENT ID='Mesh Vent: Mesh17-02-02-01-merged-merged-01-merged-merged-merged-12 [YMAX]', SURF_ID='OPEN', XB=273.8,283.4,6.4,6.4,-0.2,14.2, COLOR='INVISIBLE'/ 
&VENT ID='Mesh Vent: Mesh17-02-02-01-merged-merged-01-merged-merged-merged-12 [ZMAX]', SURF_ID='OPEN', XB=273.8,283.4,-8.0,6.4,14.2,14.2, COLOR='INVISIBLE'/ 
&VENT ID='Mesh Vent: Mesh17-02-02-01-merged-merged-01-merged-merged-merged-13 [ZMAX]', SURF_ID='OPEN', XB=283.4,293.0,-80.0,-65.6,14.2,14.2, COLOR='INVISIBLE'/ 
&VENT ID='Mesh Vent: Mesh17-02-02-01-merged-merged-01-merged-merged-merged-14 [ZMAX]', SURF_ID='OPEN', XB=283.4,293.0,-65.6,-51.2,14.2,14.2, COLOR='INVISIBLE'/ 
&VENT ID='Mesh Vent: Mesh17-02-02-01-merged-merged-01-merged-merged-merged-15 [ZMAX]', SURF_ID='OPEN', XB=283.4,293.0,-51.2,-36.8,14.2,14.2, COLOR='INVISIBLE'/ 
&VENT ID='Mesh Vent: Mesh17-02-02-01-merged-merged-01-merged-merged-merged-16 [ZMAX]', SURF_ID='OPEN', XB=283.4,293.0,-36.8,-22.4,14.2,14.2, COLOR='INVISIBLE'/ 
&VENT ID='Mesh Vent: Mesh17-02-02-01-merged-merged-01-merged-merged-merged-17 [ZMAX]', SURF_ID='OPEN', XB=283.4,293.0,-22.4,-8.0,14.2,14.2, COLOR='INVISIBLE'/ 
&VENT ID='Mesh Vent: Mesh17-02-02-01-merged-merged-01-merged-merged-merged-18 [YMAX]', SURF_ID='OPEN', XB=283.4,293.0,6.4,6.4,-0.2,14.2, COLOR='INVISIBLE'/ 
&VENT ID='Mesh Vent: Mesh17-02-02-01-merged-merged-01-merged-merged-merged-18 [ZMAX]', SURF_ID='OPEN', XB=283.4,293.0,-8.0,6.4,14.2,14.2, COLOR='INVISIBLE'/ 
&VENT ID='Mesh Vent: Mesh17-02-02-01-merged-merged-01-merged-merged-merged-19 [ZMAX]', SURF_ID='OPEN', XB=293.0,302.6,-80.0,-65.6,14.2,14.2, COLOR='INVISIBLE'/ 
&VENT ID='Mesh Vent: Mesh17-02-02-01-merged-merged-01-merged-merged-merged-20 [ZMAX]', SURF_ID='OPEN', XB=293.0,302.6,-65.6,-51.2,14.2,14.2, COLOR='INVISIBLE'/ 
&VENT ID='Mesh Vent: Mesh17-02-02-01-merged-merged-01-merged-merged-merged-21 [ZMAX]', SURF_ID='OPEN', XB=293.0,302.6,-51.2,-36.8,14.2,14.2, COLOR='INVISIBLE'/ 
&VENT ID='Mesh Vent: Mesh17-02-02-01-merged-merged-01-merged-merged-merged-22 [ZMAX]', SURF_ID='OPEN', XB=293.0,302.6,-36.8,-22.4,14.2,14.2, COLOR='INVISIBLE'/ 
&VENT ID='Mesh Vent: Mesh17-02-02-01-merged-merged-01-merged-merged-merged-23 [ZMAX]', SURF_ID='OPEN', XB=293.0,302.6,-22.4,-8.0,14.2,14.2, COLOR='INVISIBLE'/ 
&VENT ID='Mesh Vent: Mesh17-02-02-01-merged-merged-01-merged-merged-merged-24 [YMAX]', SURF_ID='OPEN', XB=293.0,302.6,6.4,6.4,-0.2,14.2, COLOR='INVISIBLE'/ 
&VENT ID='Mesh Vent: Mesh17-02-02-01-merged-merged-01-merged-merged-merged-24 [ZMAX]', SURF_ID='OPEN', XB=293.0,302.6,-8.0,6.4,14.2,14.2, COLOR='INVISIBLE'/ 
&VENT ID='Mesh Vent: Mesh17-02-02-01-merged-merged-01-merged-merged-merged-25 [ZMAX]', SURF_ID='OPEN', XB=302.6,312.2,-80.0,-65.6,14.2,14.2, COLOR='INVISIBLE'/ 
&VENT ID='Mesh Vent: Mesh17-02-02-01-merged-merged-01-merged-merged-merged-26 [ZMAX]', SURF_ID='OPEN', XB=302.6,312.2,-65.6,-51.2,14.2,14.2, COLOR='INVISIBLE'/ 
&VENT ID='Mesh Vent: Mesh17-02-02-01-merged-merged-01-merged-merged-merged-27 [ZMAX]', SURF_ID='OPEN', XB=302.6,312.2,-51.2,-36.8,14.2,14.2, COLOR='INVISIBLE'/ 
&VENT ID='Mesh Vent: Mesh17-02-02-01-merged-merged-01-merged-merged-merged-28 [ZMAX]', SURF_ID='OPEN', XB=302.6,312.2,-36.8,-22.4,14.2,14.2, COLOR='INVISIBLE'/ 
&VENT ID='Mesh Vent: Mesh17-02-02-01-merged-merged-01-merged-merged-merged-29 [ZMAX]', SURF_ID='OPEN', XB=302.6,312.2,-22.4,-8.0,14.2,14.2, COLOR='INVISIBLE'/ 
&VENT ID='Mesh Vent: Mesh17-02-02-01-merged-merged-01-merged-merged-merged-30 [YMAX]', SURF_ID='OPEN', XB=302.6,312.2,6.4,6.4,-0.2,14.2, COLOR='INVISIBLE'/ 
&VENT ID='Mesh Vent: Mesh17-02-02-01-merged-merged-01-merged-merged-merged-30 [ZMAX]', SURF_ID='OPEN', XB=302.6,312.2,-8.0,6.4,14.2,14.2, COLOR='INVISIBLE'/ 
&VENT ID='Mesh Vent: Mesh17-02-02-01-merged-merged-01-merged-merged-merged-31 [ZMAX]', SURF_ID='OPEN', XB=312.2,321.8,-80.0,-65.6,14.2,14.2, COLOR='INVISIBLE'/ 
&VENT ID='Mesh Vent: Mesh17-02-02-01-merged-merged-01-merged-merged-merged-32 [ZMAX]', SURF_ID='OPEN', XB=312.2,321.8,-65.6,-51.2,14.2,14.2, COLOR='INVISIBLE'/ 
&VENT ID='Mesh Vent: Mesh17-02-02-01-merged-merged-01-merged-merged-merged-33 [ZMAX]', SURF_ID='OPEN', XB=312.2,321.8,-51.2,-36.8,14.2,14.2, COLOR='INVISIBLE'/ 
&VENT ID='Mesh Vent: Mesh17-02-02-01-merged-merged-01-merged-merged-merged-34 [ZMAX]', SURF_ID='OPEN', XB=312.2,321.8,-36.8,-22.4,14.2,14.2, COLOR='INVISIBLE'/ 
&VENT ID='Mesh Vent: Mesh17-02-02-01-merged-merged-01-merged-merged-merged-35 [ZMAX]', SURF_ID='OPEN', XB=312.2,321.8,-22.4,-8.0,14.2,14.2, COLOR='INVISIBLE'/ 
&VENT ID='Mesh Vent: Mesh17-02-02-01-merged-merged-01-merged-merged-merged-36 [YMAX]', SURF_ID='OPEN', XB=312.2,321.8,6.4,6.4,-0.2,14.2, COLOR='INVISIBLE'/ 
&VENT ID='Mesh Vent: Mesh17-02-02-01-merged-merged-01-merged-merged-merged-36 [ZMAX]', SURF_ID='OPEN', XB=312.2,321.8,-8.0,6.4,14.2,14.2, COLOR='INVISIBLE'/ 
&VENT ID='Mesh Vent: Mesh17-02-02-01-merged-merged-01-merged-merged-merged-37 [ZMAX]', SURF_ID='OPEN', XB=321.8,331.4,-80.0,-65.6,14.2,14.2, COLOR='INVISIBLE'/ 
&VENT ID='Mesh Vent: Mesh17-02-02-01-merged-merged-01-merged-merged-merged-38 [ZMAX]', SURF_ID='OPEN', XB=321.8,331.4,-65.6,-51.2,14.2,14.2, COLOR='INVISIBLE'/ 
&VENT ID='Mesh Vent: Mesh17-02-02-01-merged-merged-01-merged-merged-merged-39 [ZMAX]', SURF_ID='OPEN', XB=321.8,331.4,-51.2,-36.8,14.2,14.2, COLOR='INVISIBLE'/ 
&VENT ID='Mesh Vent: Mesh17-02-02-01-merged-merged-01-merged-merged-merged-40 [ZMAX]', SURF_ID='OPEN', XB=321.8,331.4,-36.8,-22.4,14.2,14.2, COLOR='INVISIBLE'/ 
&VENT ID='Mesh Vent: Mesh17-02-02-01-merged-merged-01-merged-merged-merged-41 [ZMAX]', SURF_ID='OPEN', XB=321.8,331.4,-22.4,-8.0,14.2,14.2, COLOR='INVISIBLE'/ 
&VENT ID='Mesh Vent: Mesh17-02-02-01-merged-merged-01-merged-merged-merged-42 [YMAX]', SURF_ID='OPEN', XB=321.8,331.4,6.4,6.4,-0.2,14.2, COLOR='INVISIBLE'/ 
&VENT ID='Mesh Vent: Mesh17-02-02-01-merged-merged-01-merged-merged-merged-42 [ZMAX]', SURF_ID='OPEN', XB=321.8,331.4,-8.0,6.4,14.2,14.2, COLOR='INVISIBLE'/ 
&VENT ID='Mesh Vent: Mesh17-02-02-01-merged-merged-01-merged-merged-merged-43 [XMAX]', SURF_ID='OPEN', XB=341.0,341.0,-80.0,-65.6,-0.2,14.2, COLOR='INVISIBLE'/ 
&VENT ID='Mesh Vent: Mesh17-02-02-01-merged-merged-01-merged-merged-merged-43 [ZMAX]', SURF_ID='OPEN', XB=331.4,341.0,-80.0,-65.6,14.2,14.2, COLOR='INVISIBLE'/ 
&VENT ID='Mesh Vent: Mesh17-02-02-01-merged-merged-01-merged-merged-merged-44 [XMAX]', SURF_ID='OPEN', XB=341.0,341.0,-65.6,-51.2,-0.2,14.2, COLOR='INVISIBLE'/ 
&VENT ID='Mesh Vent: Mesh17-02-02-01-merged-merged-01-merged-merged-merged-44 [ZMAX]', SURF_ID='OPEN', XB=331.4,341.0,-65.6,-51.2,14.2,14.2, COLOR='INVISIBLE'/ 
&VENT ID='Mesh Vent: Mesh17-02-02-01-merged-merged-01-merged-merged-merged-45 [XMAX]', SURF_ID='OPEN', XB=341.0,341.0,-51.2,-36.8,-0.2,14.2, COLOR='INVISIBLE'/ 
&VENT ID='Mesh Vent: Mesh17-02-02-01-merged-merged-01-merged-merged-merged-45 [ZMAX]', SURF_ID='OPEN', XB=331.4,341.0,-51.2,-36.8,14.2,14.2, COLOR='INVISIBLE'/ 
&VENT ID='Mesh Vent: Mesh17-02-02-01-merged-merged-01-merged-merged-merged-46 [XMAX]', SURF_ID='OPEN', XB=341.0,341.0,-36.8,-22.4,-0.2,14.2, COLOR='INVISIBLE'/ 
&VENT ID='Mesh Vent: Mesh17-02-02-01-merged-merged-01-merged-merged-merged-46 [ZMAX]', SURF_ID='OPEN', XB=331.4,341.0,-36.8,-22.4,14.2,14.2, COLOR='INVISIBLE'/ 
&VENT ID='Mesh Vent: Mesh17-02-02-01-merged-merged-01-merged-merged-merged-47 [XMAX]', SURF_ID='OPEN', XB=341.0,341.0,-22.4,-8.0,-0.2,14.2, COLOR='INVISIBLE'/ 
&VENT ID='Mesh Vent: Mesh17-02-02-01-merged-merged-01-merged-merged-merged-47 [ZMAX]', SURF_ID='OPEN', XB=331.4,341.0,-22.4,-8.0,14.2,14.2, COLOR='INVISIBLE'/ 
&VENT ID='Mesh Vent: Mesh17-02-02-01-merged-merged-01-merged-merged-merged-48 [XMAX]', SURF_ID='OPEN', XB=341.0,341.0,-8.0,6.4,-0.2,14.2, COLOR='INVISIBLE'/ 
&VENT ID='Mesh Vent: Mesh17-02-02-01-merged-merged-01-merged-merged-merged-48 [YMAX]', SURF_ID='OPEN', XB=331.4,341.0,6.4,6.4,-0.2,14.2, COLOR='INVISIBLE'/ 
&VENT ID='Mesh Vent: Mesh17-02-02-01-merged-merged-01-merged-merged-merged-48 [ZMAX]', SURF_ID='OPEN', XB=331.4,341.0,-8.0,6.4,14.2,14.2, COLOR='INVISIBLE'/ 
&VENT ID='Vent', SURF_ID='FIRE', XB=289.0,290.0,-46.0,-45.0,5.6,5.6/ 

&SLCF QUANTITY='VISIBILITY', ID='', PBZ=1.8/
&SLCF QUANTITY='VISIBILITY', ID='', PBZ=7.4/
&SLCF QUANTITY='TEMPERATURE', ID='', PBZ=1.8/
&SLCF QUANTITY='TEMPERATURE', ID='', PBZ=7.4/
&SLCF QUANTITY='VISIBILITY', ID='', PBY=-46.0/
&SLCF QUANTITY='TEMPERATURE', ID='', PBY=-46.0/
&SLCF QUANTITY='TEMPERATURE', ID='', PBZ=10.0/
&SLCF QUANTITY='TEMPERATURE', ID='', PBZ=1.6/
&SLCF QUANTITY='VELOCITY', ID='', PBX=297.6/
&SLCF QUANTITY='VELOCITY', ID='', PBX=310.0/
&SLCF QUANTITY='VELOCITY', ID='', PBX=285.6/
&SLCF QUANTITY='VELOCITY', ID='', PBX=272.4/


&TAIL /
